23

C          0.35570        0.86810        1.06310
C          1.09100       -0.31540        1.02750
C          0.86870       -1.23260        0.00520
C         -0.09600       -0.92460       -0.93500
N         -0.80840        0.22210       -0.93860
C         -0.56900        1.11880        0.05290
C         -1.37140        2.39920       -0.00460
C         -0.55260        3.70320       -0.12360
C          0.32630        3.74140       -1.37670
C         -1.49570        4.91290       -0.14530
H          0.51250        1.57870        1.86920
H          1.83810       -0.52390        1.79010
H          1.42600       -2.15920       -0.05330
H         -0.33130       -1.61440       -1.74220
H         -1.99950        2.44090        0.89440
H         -2.06310        2.33700       -0.85500
H          0.09790        3.79800        0.75430
H         -0.28050        3.75650       -2.28860
H          0.99950        2.88070       -1.42860
H          0.94850        4.64360       -1.37610
H         -2.12910        4.90750       -1.03980
H         -0.92550        5.84840       -0.14500
H         -2.15070        4.91990        0.73150
