
 OpenBabel01252314463D

 23 23  0  0  0  0  0  0  0  0999 V2000
    0.3557    0.8681    1.0631 C   0  0  0  0  0  0  0  0  0  0  0  0
    1.0910   -0.3154    1.0275 C   0  0  0  0  0  0  0  0  0  0  0  0
    0.8687   -1.2326    0.0052 C   0  0  0  0  0  0  0  0  0  0  0  0
   -0.0960   -0.9246   -0.9350 C   0  0  0  0  0  0  0  0  0  0  0  0
   -0.8084    0.2221   -0.9386 N   0  0  0  0  0  0  0  0  0  0  0  0
   -0.5690    1.1188    0.0529 C   0  0  0  0  0  0  0  0  0  0  0  0
   -1.3714    2.3992   -0.0046 C   0  0  0  0  0  0  0  0  0  0  0  0
   -0.5526    3.7032   -0.1236 C   0  0  0  0  0  0  0  0  0  0  0  0
    0.3263    3.7414   -1.3767 C   0  0  0  0  0  0  0  0  0  0  0  0
   -1.4957    4.9129   -0.1453 C   0  0  0  0  0  0  0  0  0  0  0  0
    0.5125    1.5787    1.8692 H   0  0  0  0  0  0  0  0  0  0  0  0
    1.8381   -0.5239    1.7901 H   0  0  0  0  0  0  0  0  0  0  0  0
    1.4260   -2.1592   -0.0533 H   0  0  0  0  0  0  0  0  0  0  0  0
   -0.3313   -1.6144   -1.7422 H   0  0  0  0  0  0  0  0  0  0  0  0
   -1.9995    2.4409    0.8944 H   0  0  0  0  0  0  0  0  0  0  0  0
   -2.0631    2.3370   -0.8550 H   0  0  0  0  0  0  0  0  0  0  0  0
    0.0979    3.7980    0.7543 H   0  0  0  0  0  0  0  0  0  0  0  0
   -0.2805    3.7565   -2.2886 H   0  0  0  0  0  0  0  0  0  0  0  0
    0.9995    2.8807   -1.4286 H   0  0  0  0  0  0  0  0  0  0  0  0
    0.9485    4.6436   -1.3761 H   0  0  0  0  0  0  0  0  0  0  0  0
   -2.1291    4.9075   -1.0398 H   0  0  0  0  0  0  0  0  0  0  0  0
   -0.9255    5.8484   -0.1450 H   0  0  0  0  0  0  0  0  0  0  0  0
   -2.1507    4.9199    0.7315 H   0  0  0  0  0  0  0  0  0  0  0  0
  1  2  1  0  0  0  0
  1  6  2  0  0  0  0
  1 11  1  0  0  0  0
  2  3  2  0  0  0  0
  2 12  1  0  0  0  0
  3  4  1  0  0  0  0
  3 13  1  0  0  0  0
  4  5  2  0  0  0  0
  4 14  1  0  0  0  0
  5  6  1  0  0  0  0
  6  7  1  0  0  0  0
  7  8  1  0  0  0  0
  7 15  1  0  0  0  0
  7 16  1  0  0  0  0
  8  9  1  0  0  0  0
  8 10  1  0  0  0  0
  8 17  1  0  0  0  0
  9 18  1  0  0  0  0
  9 19  1  0  0  0  0
  9 20  1  0  0  0  0
 10 21  1  0  0  0  0
 10 22  1  0  0  0  0
 10 23  1  0  0  0  0
M  END
$$$$
